%nprocshared=16
%mem=60GB
#P PBE1PBE/def2TZVP opt freq EmpiricalDispersion=GD3 Int=(grid=99590) scrf=(iefpcm, solvent=water)

y=chf2 intermediate

0 1
H                 -2.38382900    1.62420200    0.15023700
O                 -1.82322645   -0.54809041    1.31845111
C                 -2.28509400   -0.50215800    0.17075000
N                 -3.08941100    0.92129400   -0.05831400
H                 -3.34124100    1.03395100   -1.03732900
C                 -4.24972300    1.08752500    0.82714000
H                 -5.04366400    0.41512600    0.51086100
H                 -3.93388600    0.84095000    1.83914700
H                 -4.60673800    2.11529300    0.78855400
O                 -1.25518000   -0.27146100   -0.96262700
C                  0.01050500   -0.12482200   -0.55805400
C                  0.58540800    1.13588100   -0.42547200
C                  0.82232000   -1.22239700   -0.28247300
C                  1.90822800    1.30549500   -0.05907100
C                  2.14596000   -1.07125700    0.08962000
C                  2.69327700    0.19587100    0.20099500
F                 -0.16252000    2.21748700   -0.64947700
F                  0.32384800   -2.44952100   -0.38921600
F                  2.42536500    2.52423700    0.05163300
F                  2.89815900   -2.13758100    0.34052000
F                  3.96376500    0.34453900    0.55524600
C                 -3.19881802   -1.61562941   -0.37412599
H                 -3.48502656   -1.38258869   -1.37845496
F                 -2.53522732   -2.79114596   -0.35656983
F                 -4.30229602   -1.71023085    0.39781110

