%nproc=16
%mem=60GB
#P PBE1PBE/def2TZVP opt=(calcfc, ts, noeigentest) freq EmpiricalDispersion=GD3 Int=(grid=99590) scrf=(iefpcm, solvent=water) 

PFP-CF3 

0 1
H                 -2.26547200    1.66102300    0.18675700
O                 -1.83016400   -0.79759400    1.21790200
C                 -2.25300700   -0.61245100    0.08197700
N                 -3.04585500    1.02926500    0.03730500
H                 -3.41578100    1.22422900   -0.88780500
C                 -4.05329500    1.18841700    1.08090500
H                 -4.93743400    0.60730100    0.82418800
H                 -3.63383000    0.81153500    2.01359000
H                 -4.33837200    2.23372200    1.20526000
C                 -3.29780000   -1.49062700   -0.55823100
H                 -2.87124700   -2.49087300   -0.65147200
H                 -4.17445700   -1.54755300    0.08617800
H                 -3.58633200   -1.13874400   -1.54828900
O                 -1.26018900   -0.31859100   -0.98042200
C                  0.00533200   -0.14788600   -0.55909400
C                  0.56479500    1.12033500   -0.45975100
C                  0.81947300   -1.23391900   -0.25365500
C                  1.88414700    1.30802000   -0.08720800
C                  2.13854200   -1.06295700    0.12635600
C                  2.67426600    0.21143900    0.20939300
F                 -0.18490200    2.18964000   -0.72617200
F                  0.33150700   -2.46502900   -0.34104600
F                  2.39182100    2.53209300   -0.00777500
F                  2.89645400   -2.11604300    0.40853900
C                  4.14355682    0.40660108    0.62735979
F                  4.28275174    1.60276058    1.23754601
F                  4.93215016    0.36551971   -0.46759814
F                  4.50378270   -0.57739342    1.47853082

