%nproc=16
%mem=60GB
#P PBE1PBE/6-31G(d,p) opt freq EmpiricalDispersion=GD3 Int=(grid=99590) scrf=(iefpcm, solvent=water) 

PFP-CF3 

0 1
H                3.232065           -1.462397           -0.642152
O                2.526809           -0.197434            1.411686
C                3.053881            0.328717            0.431622
N                3.905735           -0.729153           -0.428024
H                4.189045           -0.316787           -1.314302
C                5.053088           -1.284018            0.305613
H                5.805957           -0.510392            0.436235
H                4.696188           -1.626089            1.274684
H                5.477247           -2.116333           -0.252429
C                3.845393            1.611337            0.538497
H                3.184594            2.368192            0.959498
H                4.683345            1.465927            1.222212
H                4.213640            1.960899           -0.425999
O                2.028459            0.679330           -0.784121
C                0.762285            0.407551           -0.534397
C                0.270015           -0.892638           -0.435399
C               -0.169720            1.436397           -0.369910
C               -1.064352           -1.161868           -0.192882
C               -1.500906            1.170002           -0.137644
C               -1.984493           -0.132090           -0.036429
F                1.101147           -1.921876           -0.618784
F                0.237678            2.700067           -0.440789
F               -1.426084           -2.437983           -0.125132
F               -2.337145            2.195674            0.004756
C               -3.448931           -0.331067            0.228450
F               -3.818770            0.251819            1.379928
F               -4.197691            0.221661           -0.739318
F               -3.799351           -1.612479            0.309648

