%nproc=16
%mem=60GB
#P PBE1PBE/def2TZVP opt freq EmpiricalDispersion=GD3 Int=(grid=99590) scrf=(iefpcm, solvent=water) 

TFP-CF3_inter 

0 1
H                  3.30954511   -1.95855471    0.46608531
O                  3.76373080    0.45801432    1.49762529
C                  3.61096031    0.37358117    0.27584225
N                  3.89772706   -1.18340599    0.16728286
H                  4.14325544   -1.34958689   -0.80604753
C                  5.08844507   -1.09873515    1.02558597
H                  5.77069966   -0.35359153    0.62374247
H                  4.76180024   -0.80771103    2.02206624
H                  5.58753402   -2.06538685    1.06551375
C                  4.06433618    1.45931481   -0.67818244
H                  3.48923262    2.35384824   -0.44201253
H                  5.12220810    1.67738357   -0.52451129
H                  3.89003041    1.19365520   -1.72067138
O                  2.06772500    0.25536200   -0.97652600
C                  0.78615000    0.16025500   -0.64712000
C                  0.14020600   -1.06986600   -0.56985600
C                  0.01139800    1.28937600   -0.39020200
C                 -1.20446200   -1.17328600   -0.27230700
C                 -1.33293800    1.18869400   -0.08799600
C                 -1.97062400   -0.04543200   -0.00101600
F                  0.84222400   -2.18149100   -0.79531500
F                  0.57078000    2.49132600   -0.45431300
F                 -1.74225400   -2.38850800   -0.25787200
F                 -2.00656100    2.31781700    0.10575800
C                 -3.43989200   -0.14933300    0.30745500
F                 -3.85691700    0.83687600    1.10170200
F                 -4.18189200   -0.09603400   -0.81019700
F                 -3.74254700   -1.29249500    0.92258700

