%nprocshared=16
%mem=60GB
#P PBE1PBE/def2TZVP opt freq EmpiricalDispersion=GD3 Int=(grid=99590) scrf=(iefpcm, solvent=water)

x=chf2 lg+ester reactant

0 1
O                  0.73523202   -0.16783135   -3.08985147
C                  1.19232193    0.83368652   -2.48026036
C                  2.46010878    1.53790321   -2.99832923
O                  0.53451164    1.31785951   -1.30647923
C                 -0.53676724    0.72279533   -0.86871003
C                 -0.42797036   -0.32773088    0.05241964
C                 -1.79924901    1.13248246   -1.31839681
C                 -1.58165551   -0.96856698    0.52386597
C                 -2.95293401    0.49164458   -0.84695254
C                 -2.84413735   -0.55887899    0.07418018
F                  0.78820682   -0.72239429    0.48560997
F                 -1.90405551    2.14447817   -2.20574132
F                 -1.47684925   -1.98055996    1.41121362
F                 -4.16911099    0.88630571   -1.28014548
F                 -3.95550818   -1.17620969    0.52833621
F                  3.54961694    0.97799232   -2.43090367
H                  2.41995900    2.57665962   -2.74480778
F                  2.53262848    1.40456641   -4.33976957

