%nproc=16
%mem=60GB
#P PBE1PBE/def2TZVP opt freq EmpiricalDispersion=GD3 Int=(grid=99590) scrf=(iefpcm, solvent=water) 

tfp-cf3-OH_product2

0 1
C                  2.13601900    0.00000000   -0.00812600
C                  1.42436400    1.18802900   -0.00193100
C                  1.42436400   -1.18802900   -0.00193100
C                  0.04346500    1.18680300   -0.00707600
C                  0.04346500   -1.18680300   -0.00707600
C                 -0.67658300    0.00000000   -0.03067900
O                  3.48546700    0.00000000    0.07766100
H                  3.86587900    0.00000000   -0.81062400
F                  2.07292800    2.34138800    0.01207800
F                  2.07292900   -2.34138800    0.01207900
F                 -0.56918300   -2.36030500    0.02442700
F                 -0.56918400    2.36030500    0.02442700
C                 -2.18086400    0.00000000   -0.01435900
F                 -2.68497600    1.07378300   -0.62357900
F                 -2.68497600   -1.07378300   -0.62357900
F                 -2.64142700    0.00000000    1.24263700

