%nproc=16
%mem=60GB
#P PBE1PBE/def2TZVP opt=(calcfc, ts, noeigentest) freq EmpiricalDispersion=GD3 Int=(grid=99590) scrf=(iefpcm, solvent=water) 

tfp-cf3 ts2 

0 1
C                  0.80611600    0.66836100   -0.83748100
C                 -0.20155800    1.62227700   -0.54334800
C                 -0.92719800   -1.00391200   -0.37061400
C                 -1.48401300    1.28575200   -0.17540500
C                 -1.89917400   -0.04367300   -0.08163100
F                 -2.32391800    2.28762600    0.09531600
F                  0.12253300    2.92193500   -0.61072800
C                  0.35171100   -0.67319200   -0.73703300
F                  1.22214100   -1.65757500   -1.00428100
F                 -1.24596400   -2.30006600   -0.28523800
O                  5.31127475    0.29212013   -0.21330977
C                  4.37491122    0.38068256    0.50714871
C                  4.05364965    1.43168185    1.49535559
H                  4.99764483    1.89368037    1.78333012
H                  3.39288834    2.18917310    1.06539411
H                  3.56652064    0.97075540    2.35370754
O                  1.99419900    0.98905100   -1.14134800
H                  2.45816554   -0.41922419    0.76954465
N                  3.38273513   -0.76112808    0.50523038
H                  3.74164618   -1.30953296    1.31187446
C                  3.31884387   -1.53789699   -0.74881136
H                  2.63479416   -2.36954400   -0.60112576
H                  2.96050485   -0.89039451   -1.54519228
H                  4.31444583   -1.90165869   -0.98154038
C                 -3.25797100   -0.49036200    0.33169100
F                 -3.80386500   -1.34014900   -0.56051600
F                 -3.23724100   -1.15787500    1.50540100
F                 -4.12430500    0.51382400    0.48063900

