%nproc=16
%mem=60GB
#P PBE1PBE/def2TZVP opt freq EmpiricalDispersion=GD3 Int=(grid=99590) scrf=(iefpcm, solvent=water) 

Methyl_Amine

0 1
H                 -3.46476997   -0.60077780   -4.35238530
N                 -4.41768296   -0.80374201   -4.12708026
H                 -4.76478754   -1.50618140   -4.74844756
C                 -5.22498223    0.41671962   -4.26722772
H                 -6.24459913    0.19954791   -4.02615132
H                 -4.85358033    1.16832976   -3.60236471
H                 -5.16439322    0.77064440   -5.27517921

