%nproc=16
%mem=60GB
#P PBE1PBE/def2TZVP opt freq EmpiricalDispersion=GD3 Int=(grid=99590) scrf=(iefpcm, solvent=water) 

N-Methylacetamide_product2

0 1
C                  0.64171984    0.80341715    0.17600797
O                  0.03377674   -0.29782290    0.14070797
N                  2.07657068    0.84102486    0.49332283
H                  2.49971404    1.62069459    0.03173338
C                 -0.11747092    2.11169000   -0.11321782
H                  0.33311734    2.91379228    0.43313569
H                 -0.07409091    2.32510620   -1.16082065
H                 -1.13892888    2.00516628    0.18707593
C                  2.71227472   -0.40308851    0.03619888
H                  2.58334622   -0.50179533   -1.02140899
H                  3.75668996   -0.37571419    0.26716956
H                  2.25951133   -1.23733511    0.53009959

